Circuit: * C:\Users\mvarg\Documents\art-of-electronics\acmonitor.asc

Direct Newton iteration for .op point succeeded.

Date: Sat Nov 21 17:23:55 2020
Total elapsed time: 0.532 seconds.

tnom = 27
temp = 27
method = modified trap
totiter = 63761
traniter = 63754
tranpoints = 22517
accept = 15691
rejected = 6826
matrix size = 19
fillins = 4
solver = Normal
Matrix Compiler1: 1.18 KB object code size  0.2/0.1/[0.1]
Matrix Compiler2: 1.47 KB object code size  0.1/0.2/[0.1]

