Circuit: * C:\Users\mvarg\Documents\art-of-electronics\zener_1-16.asc

.OP point found by inspection.

Date: Sat Nov 21 13:44:23 2020
Total elapsed time: 0.063 seconds.

tnom = 27
temp = 27
method = trap
totiter = 54
traniter = 0
tranpoints = 0
accept = 0
rejected = 0
matrix size = 4
fillins = 0
solver = Normal
Matrix Compiler1: 100 bytes object code size
Matrix Compiler2: 248 bytes object code size
